!Comment 1
!Comment 2
!Comment 3
THERMO ALL
    300.000 1000.000 5000.000
NH3                     N   1H   3    0    0    300.00   5000.00  1000.00      1 !Decrease value for this species
 2.31685770E+00 6.28414600E-03-2.12511630E-06 3.40186900E-10-2.14700260E-14    2
 5.60068730E+03 8.29876570E+00 3.77297470E+00-8.29757160E-04 1.18018820E-05    3 !c6 is increased
-1.21268740E-08 4.17637900E-12 5.33638460E+03 1.49689470E+00                   4 !c13 is increased
H2                      H   2    0    0    0    300.00   5000.00  1000.00      1
 0.30667095E+01 0.57473755E-03 0.13938319E-07-0.25483518E-10 0.29098574E-14    2
-0.86547412E+03-0.17798424E+01 0.33553514E+01 0.50136144E-03-0.23006908E-06    3
-0.47905324E-09 0.48522585E-12-0.10191626E+04-0.35477228E+01                   4
H2O                     H   2O   1    0    0    300.00   5000.00  1000.00      1
 0.26110472E+01 0.31563130E-02-0.92985438E-06 0.13331538E-09-0.74689351E-14    2
-0.29868167E+05 0.72091268E+01 0.41677234E+01-0.18114970E-02 0.59471288E-05    3
-0.48692021E-08 0.15291991E-11-0.30289969E+05-0.73135474E+00                   4
O2                      O   2    0    0    0    300.00   5000.00  1000.00      1
 0.36122139E+01 0.74853166E-03-0.19820647E-06 0.33749008E-10-0.23907374E-14    2
-0.11978151E+04 0.36703307E+01 0.37837135E+01-0.30233634E-02 0.99492751E-05    3
-0.98189101E-08 0.33031825E-11-0.10638107E+04 0.36416345E+01                   4
N2                      N   2    0    0    0    300.00   5000.00  1000.00      1
 0.28532899E+01 0.16022128E-02-0.62936893E-06 0.11441022E-09-0.78057465E-14    2
-0.89008093E+03 0.63964897E+01 0.37044177E+01-0.14218753E-02 0.28670392E-05    3
-0.12028885E-08-0.13954677E-13-0.10640795E+04 0.22336285E+01                   4
N2O                     O   1N   2    0    0    300.00   5000.00  1000.00      1
 4.73066790E+00 2.82582670E-03-1.15581150E-06 2.12636830E-10-1.45640870E-14    2
 8.16176820E+03-1.71510730E+00 2.61891960E+00 8.64396160E-03-6.81106240E-06    3
 2.22758770E-09-8.06503300E-14 8.75901230E+03 9.22669520E+00                   4
NO                      O   1N   1    0    0    300.00   5000.00  1000.00      1
 3.18900000E+00 1.33822810E-03-5.28993180E-07 9.59193320E-11-6.48479320E-15    2
 9.82832900E+03 6.74581260E+00 4.04595210E+00-3.41817830E-03 7.98191900E-06    3
-6.11393160E-09 1.59190760E-12 9.74539340E+03 2.99749880E+00                   4
NO2                     O   2N   1    0    0    300.00   5000.00  1000.00      1
 4.62407710E+00 2.52603320E-03-1.06094980E-06 1.98792390E-10-1.37993840E-14    2
 2.28999000E+03 1.33241380E+00 3.45892360E+00 2.06470640E-03 6.68660670E-06    3
-9.55567250E-09 3.61958810E-12 2.81522650E+03 8.31169830E+00                   4
H2O_Fe                  H   2O   1Fe  1    0    300.00   3000.00  1000.00      1
 0.35042138E+01 0.66859484E-03 0.17626874E-05-0.11703015E-08 0.22618536E-12    2
-0.37912917E+05-0.10558253E+02 0.35042138E+01 0.66859484E-03 0.17626874E-05    3
-0.11703015E-08 0.22618536E-12-0.37912917E+05-0.10558253E+02                   4
H_Fe                    H   1Fe  1    0    0    300.00   3000.00  1000.00      1
 0.13852235E+01-0.36029151E-04 0.10148288E-05-0.63923405E-09 0.12606464E-12    2
-0.54588657E+04-0.50426290E+01 0.13852235E+01-0.36029151E-04 0.10148288E-05    3
-0.63923405E-09 0.12606464E-12-0.54588657E+04-0.50426290E+01                   4
OH_Fe                   H   1O   1Fe  1    0    300.00   3000.00  1000.00      1
 0.20890550E+01 0.17144390E-02-0.42783855E-06 0.91121141E-11 0.11376037E-13    2
-0.26733430E+05-0.38613884E+01 0.20890550E+01 0.17144390E-02-0.42783855E-06    3
 0.91121141E-11 0.11376037E-13-0.26733430E+05-0.38613884E+01                   4
NH3_Fe                  Fe  1H   3N   1    0    298.00   1500.00  1500.00      1
 0.31634147E+01 0.34259180E-02 0.68464939E-06-0.95207063E-09 0.20123356E-12    2
-0.16335310E+05-0.16225614E+02 0.31634147E+01 0.34259180E-02 0.68464939E-06    3
-0.95207063E-09 0.20123356E-12-0.16335310E+05-0.16225614E+02                   4
NH2_Fe                  N   1H   2Fe  1    0    298.00   1500.00  1500.00      1
 0.26102805E+01 0.19479198E-02 0.12979847E-05-0.12338970E-08 0.27946600E-12    2
-0.75514992E+04-0.18994350E+02 0.26102805E+01 0.19479198E-02 0.12979847E-05    3
-0.12338970E-08 0.27946600E-12-0.75514992E+04-0.18994350E+02                   4
NH_Fe                   H   1N   1Fe  1    0    298.00   1500.00  1500.00      1
 0.20571342E+01 0.46998539E-03 0.19112025E-05-0.15156321E-08 0.35767305E-12    2
-0.22928486E+04-0.12025909E+02 0.20571342E+01 0.46998539E-03 0.19112025E-05    3
-0.15156321E-08 0.35767305E-12-0.22928486E+04-0.12025909E+02                   4
N2O_Fe                  O   1N   2Fe  1    0    300.00    900.00   900.00      1
 3.50833254E+00 1.39878835E-03 5.72361548E-06-8.26453214E-09 3.47126761E-12    2
 1.00055866E+04-2.79050713E+00 3.50833254E+00 1.39878835E-03 5.72361548E-06    3
-8.26453214E-09 3.47126761E-12 1.00055866E+04-2.79050713E+00                   4
NO_Fe                   O   1N   1Fe  1    0    300.00    900.00   900.00      1
 3.02717233E+00-2.35291082E-03 7.81376243E-06-7.14290546E-09 2.24302265E-12    2
 1.37772082E+03-8.77404102E-01 3.02717233E+00-2.35291082E-03 7.81376243E-06    3
-7.14290546E-09 2.24302265E-12 1.37772082E+03-8.77404102E-01                   4
NO2_Fe                  O   2N   1Fe  1    0    300.00    900.00   900.00      1
 3.95654168E+00-8.30664675E-04 6.68591838E-06-6.06096773E-09 1.53311776E-12    2
-1.07963532E+03 5.56565050E-01 3.95654168E+00-8.30664675E-04 6.68591838E-06    3
-6.06096773E-09 1.53311776E-12-1.07963532E+03 5.56565050E-01                   4
O_Fe                    O   1Fe  1    0    0    300.00   3000.00  1000.00      1
 0.93388577E+00 0.14928749E-02-0.15115381E-05 0.76013345E-09-0.14249939E-12    2
-0.28801188E+05-0.34724750E+01 0.93388577E+00 0.14928749E-02-0.15115381E-05    3
 0.76013345E-09-0.14249939E-12-0.28801188E+05-0.34724750E+01                   4
N_Fe                    Fe  1N   1    0    0    298.00   1500.00  1500.00      1
 0.15039841E+01-0.10079294E-02 0.25243842E-05-0.17973391E-08 0.43587228E-12    2
-0.13148193E+05-0.10557038E+02 0.15039841E+01-0.10079294E-02 0.25243842E-05    3
-0.17973391E-08 0.43587228E-12-0.13148193E+05-0.10557038E+02                   4
Fe                      Fe  1    0    0    0    300.00   3000.00  1000.00      1
 0.00000001E+00 0.00000000E+00 0.00000000E+00 0.00000000E+00 0.00000000E+00    2
 0.00000000E+00 0.00000000E+00 0.00000000E+00 0.00000000E+00 0.00000000E+00    3
 0.00000000E+00 0.00000000E+00 0.00000000E+00 0.00000000E+00                   4
END