!Thermodata
THERMO ALL
!**********************************************************************************
!                                   Pd-Surface
!**********************************************************************************
Pd                      Pd  1    0    0    0 298.15    2042.00   1000.00       1
 2.85793043E+00 1.02169438E-03-5.90389244E-07 2.63911729E-10-5.65925560E-15    2
-8.95793150E+02-1.15728164E+01 2.60343622E+00 2.37670693E-03-3.28073455E-06    3
 2.61765836E-09-7.69578918E-13-8.57676172E+02-1.04182748E+01                   4
O-Pd                    O   1Pd  1    0    0 300.00    3000.00   1000.00       1
 0.19454180E+01 0.91761647E-03-0.11226719E-06-0.99099624E-10 0.24307699E-13    2
-0.14005187E+05-0.11531663E+02-0.94986904E+00 0.74042305E-02-0.10451424E-05    3
-0.61120420E-08 0.33787992E-11-0.13209912E+05 0.36137905E+01                   4
H-Pd                    H   1Pd  1    0    0 300.00    3000.00   1000.00       1
 0.10696996E+01 0.15432230E-02-0.15500922E-06-0.16573165E-09 0.38359347E-13    2
-0.50546128E+04-0.71555238E+01-0.13029877E+01 0.54173199E-02 0.31277972E-06    3
-0.32328533E-08 0.11362820E-11-0.42277075E+04 0.58743238E+01                   4
OH-Pd                   H   1O   1Pd  1    0 300.00    3000.00   1000.00       1
 0.18249973E+01 0.32501565E-02-0.31197541E-06-0.34603206E-09 0.79171472E-13    2
-0.26685492E+05-0.12280891E+02-0.20340881E+01 0.93662683E-02 0.66275214E-06    3
-0.52074887E-08 0.17088735E-11-0.25319949E+05 0.89863186E+01                   4
H2O-Pd                  H   2O   1Pd  1    0 300.00    3000.00   1000.00       1
 0.25803051E+01 0.49570827E-02-0.46894056E-06-0.52633137E-09 0.11998322E-12    2
-0.38302234E+05-0.17406322E+02-0.27651553E+01 0.13315115E-01 0.10127695E-05    3
-0.71820083E-08 0.22813776E-11-0.36398055E+05 0.12098145E+02                   4
CO-Pd                   C   1O   1Pd  1    0 300.00    3000.00   1000.00       1
 0.47083778E+01 0.96037297E-03-0.11805279E-06-0.76883826E-10 0.18232000E-13    2
-0.32311723E+05-0.16719593E+02 0.48907466E+01 0.68134235E-04 0.19768814E-06    3
 0.12388669E-08-0.90339249E-12-0.32297836E+05-0.17453161E+02                   4
CO2-Pd                  C   1O   2Pd  1    0 300.00    3000.00   1000.00       1
 0.46900000E+00 0.62660000E-02 0.00000000E-00 0.00000000E-00 0.00000000E-00    2
-0.50458700E+05-0.45550000E+01 0.46900000E+00 0.62662000E-02 0.00000000E-00    3
 0.00000000E-00 0.00000000E-00-0.50458700E+05-0.45550000E+01                   4
C3H6-Pd                 C   3H   6Pd  2    0 300.00    900.00    900.00        1
 0.18558345E+01 0.20957546E-01-0.22136225E-05-0.70940993E-08 0.29775900E-11    2
-0.81330856E+04 0.41767955E+01 0.18558345E+01 0.20957546E-01-0.22136225E-05    3
-0.70940993E-08 0.29775900E-11-0.81330856E+04 0.41767955E+01                   4
CC2H5-Pd                C   3H   5Pd  1    0 300.00    900.00    900.00        1
 0.10773433E+01 0.18676088E-01 0.22577330E-05-0.12497825E-07 0.55149207E-11    2
-0.44251285E+03 0.67892442E+01 0.10773433E+01 0.18676088E-01 0.22577330E-05    3
-0.12497825E-07 0.55149207E-11-0.44251285E+03 0.67892442E+01                   4
C3H5-Pd                 C   3H   5Pd  1    0 300.00    900.00    900.00        1
 0.48355510E+00 0.18035801E-01 0.10586072E-04-0.24482829E-07 0.10900286E-10    2
 0.89833252E+04 0.71622585E+01 0.48355510E+00 0.18035801E-01 0.10586072E-04    3
-0.24482829E-07 0.10900286E-10 0.89833252E+04 0.71622585E+01                   4
C3H4-Pd                 C   3H   4Pd  1    0 300.00    900.00    900.00        1 !Jana 2017-05-11 C3H5-Pd
 0.48355510E+00 0.18035801E-01 0.10586072E-04-0.24482829E-07 0.10900286E-10    2
 0.89833252E+04 0.71622585E+01 0.48355510E+00 0.18035801E-01 0.10586072E-04    3
-0.24482829E-07 0.10900286E-10 0.89833252E+04 0.71622585E+01                   4
C3H3-Pd                 C   3H   3Pd  1    0 300.00    900.00    900.00        1 !Jana 2017-05-11 C3H5-Pd
 0.48355510E+00 0.18035801E-01 0.10586072E-04-0.24482829E-07 0.10900286E-10    2
 0.89833252E+04 0.71622585E+01 0.48355510E+00 0.18035801E-01 0.10586072E-04    3
-0.24482829E-07 0.10900286E-10 0.89833252E+04 0.71622585E+01                   4
C2H3-Pd                 C   2H   3Pd  1    0 300.00    900.00    900.00        1
 0.10026730E+01 0.11212075E-01 0.10882673E-05-0.72022947E-08 0.32861336E-11    2
 0.38055126E+04 0.41982863E+01 0.10026730E+01 0.11212075E-01 0.10882673E-05    3
-0.72022947E-08 0.32861336E-11 0.38055126E+04 0.41982863E+01                   4
C2H2-Pd                 C   2H   2Pd  1    0 300.00    900.00    900.00        1 !Jana 2017-05-11 C3H5-Pd
 0.48355510E+00 0.18035801E-01 0.10586072E-04-0.24482829E-07 0.10900286E-10    2
 0.89833252E+04 0.71622585E+01 0.48355510E+00 0.18035801E-01 0.10586072E-04    3
-0.24482829E-07 0.10900286E-10 0.89833252E+04 0.71622585E+01                   4
C-Pd                    C   1Pd  1    0    0 300.00    3000.00   1000.00       1
 0.15792824E+01 0.36528701E-03-0.50657672E-07-0.34884855E-10 0.88089699E-14    2
 0.99535752E+04-0.30240495E+01 0.58924019E+00 0.25012842E-02-0.34229498E-06    3
-0.18994346E-08 0.10190406E-11 0.10236923E+05 0.21937017E+01                   4
CH-Pd                   C   1H   1Pd  1    0 300.00    3000.00   1000.00       1
-0.48242472E-02 0.30446239E-02-0.16066099E-06-0.29041700E-09 0.57999924E-13    2
 0.22595219E+05 0.56677818E+01 0.84157485E+00 0.13095380E-02 0.28464575E-06    3
 0.63862904E-09-0.42766658E-12 0.22332801E+05 0.11452305E+01                   4
CH2-Pd                  C   1H   2Pd  1    0 300.00    3000.00   1000.00       1
 0.74076122E+00 0.48032533E-02-0.32825633E-06-0.47779786E-09 0.10073452E-12    2
 0.10443752E+05 0.40842086E+00-0.14876404E+00 0.51396289E-02 0.11211075E-05    3
-0.82755452E-09-0.44572345E-12 0.10878700E+05 0.57451882E+01                   4
CH3-Pd                  C   1H   3Pd  1    0 300.00    3000.00   1000.00       1
 0.30016165E+01 0.54084505E-02-0.40538058E-06-0.53422466E-09 0.11451887E-12    2
-0.32752722E+04-0.10965984E+02 0.12919217E+01 0.72675603E-02 0.98179476E-06    3
-0.20471294E-08 0.90832717E-13-0.25745610E+04-0.11983037E+01                   4
CH4-PD                  C   1H   4PD  1    0      300.00   3000.00 1000.00     1
 0.64182942E+01 0.00000000E+00 0.00000000E+00 0.00000000E+00 0.00000000E+00    2
-0.15037816E+05-0.30840663E+02 0.64182942E+01 0.00000000E+00 0.00000000E+00    3
 0.00000000E+00 0.00000000E+00-0.15037816E+05-0.30840663E+02                   4
CH3O-Pd                 C   1H   3O   1Pd  1 300.00    900.00    900.00        1
 0.29939894E+01 0.11597626E-01-0.36647055E-05 0.35882637E-09-0.43657391E-12    2
-0.25920789E+05-0.49518167E+01 0.29939894E+01 0.11597626E-01-0.36647055E-05    3
 0.35882637E-09-0.43657391E-12-0.25920789E+05-0.49518167E+01                   4
CH3CO-Pd                C   2H   3O   1Pd  1 300.00    900.00    900.00        1
 0.29939894E+01 0.11597626E-01-0.36647055E-05 0.35882637E-09-0.43657391E-12    2
-0.25920789E+05-0.49518167E+01 0.29939894E+01 0.11597626E-01-0.36647055E-05    3
 0.35882637E-09-0.43657391E-12-0.25920789E+05-0.49518167E+01                   4
CHO-Pd                  C   1H   1O   1Pd  1 300.00    3000.00   1000.00       1 !Jana 2017-05-11 CH3-Pd 
 0.30016165E+01 0.54084505E-02-0.40538058E-06-0.53422466E-09 0.11451887E-12    2
-0.32752722E+04-0.10965984E+02 0.12919217E+01 0.72675603E-02 0.98179476E-06    3
-0.20471294E-08 0.90832717E-13-0.25745610E+04-0.11983037E+01                   4
C2H3O-Pd                C   2H   3O   1Pd  1 300.00    3000.00   1000.00       1 !Jana 2017-05-11 CH3-Pd 
 0.30016165E+01 0.54084505E-02-0.40538058E-06-0.53422466E-09 0.11451887E-12    2
-0.32752722E+04-0.10965984E+02 0.12919217E+01 0.72675603E-02 0.98179476E-06    3
-0.20471294E-08 0.90832717E-13-0.25745610E+04-0.11983037E+01                   4
HCOO-Pd                 C   1H   1O   2Pd  1 300.00    900.00    900.00        1
 0.28418338E+01 0.44099233E-02-0.59655195E-05 0.73208242E-08-0.34726218E-11    2
-0.15264007E+05-0.53955363E+01 0.28418338E+01 0.44099233E-02-0.59655195E-05    3
 0.73208242E-08-0.34726218E-11-0.15264007E+05-0.53955363E+01                   4
N-Pd                    N   1Pd  1    0    0 300.00    900.00    900.00        1
 0.18699051E+01-0.34885871E-02 0.10431511E-04-0.11598747E-07 0.47738460E-11    2
 0.13542796E+05-0.11873217E+00 0.18699051E+01-0.34885871E-02 0.10431511E-04    3
-0.11598747E-07 0.47738460E-11 0.13542796E+05-0.11873217E+00                   4
NO-Pd                   O   1N   1Pd  1    0 300.00    900.00    900.00        1
 0.30271723E+01-0.23529108E-02 0.78137624E-05-0.71429055E-08 0.22430227E-11    2
 0.13777208E+04-0.87740410E+00 0.30271723E+01-0.23529108E-02 0.78137624E-05    3
-0.71429055E-08 0.22430227E-11 0.13777208E+04-0.87740410E+00                   4
NO2-Pd                  O   2N   1Pd  1    0 300.00    900.00    900.00        1
 0.39565417E+01-0.83066467E-03 0.66859184E-05-0.60609677E-08 0.15331178E-11    2
-0.10796353E+04 0.55656505E+00 0.39565417E+01-0.83066467E-03 0.66859184E-05    3
-0.60609677E-08 0.15331178E-11-0.10796353E+04 0.55656505E+00                   4
N2O-Pd                  O   1N   2Pd  1    0 300.00    900.00    900.00        1
 0.35083325E+01 0.13987884E-02 0.57236155E-05-0.82645321E-08 0.34712676E-11    2
 0.10005587E+05-0.27905071E+01 0.35083325E+01 0.13987884E-02 0.57236155E-05    3
-0.82645321E-08 0.34712676E-11 0.10005587E+05-0.27905071E+01                   4
!**********************************************************************************
!                                   Rh-Surface
!**********************************************************************************
Rh                      Rh  1    0    0    0 298.15    2042.00   1000.00       1
 2.85793043E+00 1.02169438E-03-5.90389244E-07 2.63911729E-10-5.65925560E-15    2
-8.95793150E+02-1.15728164E+01 2.60343622E+00 2.37670693E-03-3.28073455E-06    3
 2.61765836E-09-7.69578918E-13-8.57676172E+02-1.04182748E+01                   4
O-Rh                    O   1Rh  1    0    0 300.00    3000.00   1000.00       1
 0.19454180E+01 0.91761647E-03-0.11226719E-06-0.99099624E-10 0.24307699E-13    2
-0.14005187E+05-0.11531663E+02-0.94986904E+00 0.74042305E-02-0.10451424E-05    3
-0.61120420E-08 0.33787992E-11-0.13209912E+05 0.36137905E+01                   4
H-Rh                    H   1Rh  1    0    0 300.00    800.00    800.00        1
 0.99075023E+00 0.69468924E-03-0.25410715E-08-0.14145111E-09 0.00000000E+00    2
-0.45143898E+04-0.41951766E+01 0.99075023E+00 0.69468924E-03-0.25410715E-08    3
-0.14145111E-09 0.00000000E+00-0.45143898E+04-0.41951766E+01                   4
OH-Rh                   H   1O   1Rh  1    0 300.00    3000.00   1000.00       1
 0.18249973E+01 0.32501565E-02-0.31197541E-06-0.34603206E-09 0.79171472E-13    2
-0.26685492E+05-0.12280891E+02-0.20340881E+01 0.93662683E-02 0.66275214E-06    3
-0.52074887E-08 0.17088735E-11-0.25319949E+05 0.89863186E+01                   4
H2O-Rh                  H   2O   1Rh  1    0 300.00    3000.00   1000.00       1
 0.25803051E+01 0.49570827E-02-0.46894056E-06-0.52633137E-09 0.11998322E-12    2
-0.38302234E+05-0.17406322E+02-0.27651553E+01 0.13315115E-01 0.10127695E-05    3
-0.71820083E-08 0.22813776E-11-0.36398055E+05 0.12098145E+02                   4
CO-Rh                   C   1O   1Rh  1    0 300.00    3000.00   1000.00       1
 0.47083778E+01 0.96037297E-03-0.11805279E-06-0.76883826E-10 0.18232000E-13    2
-0.32311723E+05-0.16719593E+02 0.48907466E+01 0.68134235E-04 0.19768814E-06    3
 0.12388669E-08-0.90339249E-12-0.32297836E+05-0.17453161E+02                   4
CO2-Rh                  C   1O   2Rh  1    0 300.00    3000.00   1000.00       1
 0.46900000E+00 0.62660000E-02 0.00000000E-00 0.00000000E-00 0.00000000E-00    2
-0.50458700E+05-0.45550000E+01 0.46900000E+00 0.62662000E-02 0.00000000E-00    3
 0.00000000E-00 0.00000000E-00-0.50458700E+05-0.45550000E+01                   4
N-Rh                    N   1Rh  1    0    0 300.00    900.00    900.00        1
 0.18699051E+01-0.34885871E-02 0.10431511E-04-0.11598747E-07 0.47738460E-11    2
 0.13542796E+05-0.11873217E+00 0.18699051E+01-0.34885871E-02 0.10431511E-04    3
-0.11598747E-07 0.47738460E-11 0.13542796E+05-0.11873217E+00                   4
NO-Rh                   O   1N   1Rh  1    0 300.00    900.00    900.00        1
 0.30271723E+01-0.23529108E-02 0.78137624E-05-0.71429055E-08 0.22430227E-11    2
 0.13777208E+04-0.87740410E+00 0.30271723E+01-0.23529108E-02 0.78137624E-05    3
-0.71429055E-08 0.22430227E-11 0.13777208E+04-0.87740410E+00                   4
NO2-Rh                  O   2N   1Rh  1    0 300.00    900.00    900.00        1
 0.39565417E+01-0.83066467E-03 0.66859184E-05-0.60609677E-08 0.15331178E-11    2
-0.10796353E+04 0.55656505E+00 0.39565417E+01-0.83066467E-03 0.66859184E-05    3
-0.60609677E-08 0.15331178E-11-0.10796353E+04 0.55656505E+00                   4
N2O-Rh                  O   1N   2Rh  1    0 300.00    900.00    900.00        1
 0.35083325E+01 0.13987884E-02 0.57236155E-05-0.82645321E-08 0.34712676E-11    2
 0.10005587E+05-0.27905071E+01 0.35083325E+01 0.13987884E-02 0.57236155E-05    3
-0.82645321E-08 0.34712676E-11 0.10005587E+05-0.27905071E+01                   4
C-Rh                    C   1Rh  1    0    0 300.00    3000.00   1000.00       1
 0.15792824E+01 0.36528701E-03-0.50657672E-07-0.34884855E-10 0.88089699E-14    2
 0.99535752E+04-0.30240495E+01 0.58924019E+00 0.25012842E-02-0.34229498E-06    3
-0.18994346E-08 0.10190406E-11 0.10236923E+05 0.21937017E+01                   4
CH-Rh                   C   1H   1Rh  1    0 300.00    3000.00   1000.00       1
-0.48242472E-02 0.30446239E-02-0.16066099E-06-0.29041700E-09 0.57999924E-13    2
 0.22595219E+05 0.56677818E+01 0.84157485E+00 0.13095380E-02 0.28464575E-06    3
 0.63862904E-09-0.42766658E-12 0.22332801E+05 0.11452305E+01                   4
CH2-Rh                  C   1H   2Rh  1    0 300.00    3000.00   1000.00       1
 0.74076122E+00 0.48032533E-02-0.32825633E-06-0.47779786E-09 0.10073452E-12    2
 0.10443752E+05 0.40842086E+00-0.14876404E+00 0.51396289E-02 0.11211075E-05    3
-0.82755452E-09-0.44572345E-12 0.10878700E+05 0.57451882E+01                   4
CH3-Rh                  C   1H   3Rh  1    0 300.00    3000.00   1000.00       1
 0.30016165E+01 0.54084505E-02-0.40538058E-06-0.53422466E-09 0.11451887E-12    2
-0.32752722E+04-0.10965984E+02 0.12919217E+01 0.72675603E-02 0.98179476E-06    3
-0.20471294E-08 0.90832717E-13-0.25745610E+04-0.11983037E+01                   4
C3H6-Rh                 C   3H   6Rh  2    0 300.00    900.00    900.00        1
 0.18558345E+01 0.20957546E-01-0.22136225E-05-0.70940993E-08 0.29775900E-11    2
-0.81330856E+04 0.41767955E+01 0.18558345E+01 0.20957546E-01-0.22136225E-05    3
-0.70940993E-08 0.29775900E-11-0.81330856E+04 0.41767955E+01                   4
CC2H5-Rh                C   3H   5Rh  1    0 300.00    900.00    900.00        1
 0.10773433E+01 0.18676088E-01 0.22577330E-05-0.12497825E-07 0.55149207E-11    2
-0.44251285E+03 0.67892442E+01 0.10773433E+01 0.18676088E-01 0.22577330E-05    3
-0.12497825E-07 0.55149207E-11-0.44251285E+03 0.67892442E+01                   4
C3H5-Rh                 C   3H   5Rh  1    0 300.00    900.00    900.00        1
 0.48355510E+00 0.18035801E-01 0.10586072E-04-0.24482829E-07 0.10900286E-10    2
 0.89833252E+04 0.71622585E+01 0.48355510E+00 0.18035801E-01 0.10586072E-04    3
-0.24482829E-07 0.10900286E-10 0.89833252E+04 0.71622585E+01                   4
C3H4-Rh                 C   3H   4Rh  1    0 300.00    900.00    900.00        1 !C3H5-Rh 
 0.48355510E+00 0.18035801E-01 0.10586072E-04-0.24482829E-07 0.10900286E-10    2
 0.89833252E+04 0.71622585E+01 0.48355510E+00 0.18035801E-01 0.10586072E-04    3
-0.24482829E-07 0.10900286E-10 0.89833252E+04 0.71622585E+01                   4
C3H3-Rh                 C   3H   3Rh  1    0 300.00    900.00    900.00        1 !C3H5-Rh 
 0.48355510E+00 0.18035801E-01 0.10586072E-04-0.24482829E-07 0.10900286E-10    2
 0.89833252E+04 0.71622585E+01 0.48355510E+00 0.18035801E-01 0.10586072E-04    3
-0.24482829E-07 0.10900286E-10 0.89833252E+04 0.71622585E+01                   4
C2H3-Rh                 C   2H   3Rh  1    0 300.00    900.00    900.00        1
 0.85780974E+00 0.97614368E-02-0.34106331E-05 0.25730873E-09-0.37469470E-12    2
-0.46457014E+04 0.11654102E+00 0.85780974E+00 0.97614368E-02-0.34106331E-05    3
 0.25730873E-09-0.37469470E-12-0.46457014E+04 0.11654102E+00                   4
CH3O-Rh                 C   1H   3O   1Rh  1 300.00    900.00    900.00        1
 0.29939894E+01 0.11597626E-01-0.36647055E-05 0.35882637E-09-0.43657391E-12    2
-0.25920789E+05-0.49518167E+01 0.29939894E+01 0.11597626E-01-0.36647055E-05    3
 0.35882637E-09-0.43657391E-12-0.25920789E+05-0.49518167E+01                   4
HCOO-Rh                 C   1H   1O   2Rh  1 300.00    900.00    900.00        1
 0.28418338E+01 0.44099233E-02-0.59655195E-05 0.73208242E-08-0.34726218E-11    2
-0.15264007E+05-0.53955363E+01 0.28418338E+01 0.44099233E-02-0.59655195E-05    3
 0.73208242E-08-0.34726218E-11-0.15264007E+05-0.53955363E+01                   4
!**********************************************************************************
!                                   Ce-Surface
!**********************************************************************************
!data from Westrum and Beale (to 300 K), Ricken, Nölting,&Riess (from 348 K)
CeO2                    Ce  1O   2    0    0      300.00    800.00  800.00     1
-1.28246456E+00 5.49881785E-02-1.17442026E-04 1.16937242E-07-4.40898157E-11    2
 1.26140909E+03 7.54629803E+00-1.28246456E+00 5.49881785E-02-1.17442026E-04    3
 1.16937242E-07-4.40898157E-11 1.26140909E+03 7.54629803E+00                   4
!Huntelaar, M.E., Booij, A.S., Cordfunke, E.H.P., van der Laan, R.R., The thermodynamic properties of Ce2O3(s) from T -> 0 K to 1500 K, J. Chem. Thermodynamics 2000, 32, 465-482.
Ce2O3                   Ce  2O   3    0    0    300.00   1000.00   800.00      1
 1.21896073E+01 7.91974483E-03-5.72753987E-06 3.45184181E-09-8.11628195E-13    2
-1.37992128E+03 3.27381461E+01 9.08353661E+00 2.70699487E-02-5.02870914E-05    3
 4.96888565E-08-1.88186008E-11-9.72927910E+02 1.79735895E+01                   4
END
