THERMO ALL
 300.0 1000.0 3000.0
AR                      AR 1                    298.00   6000.00  1000.00      1
 2.50000000E+00 0.00000000E+00 0.00000000E+00 0.00000000E+00 0.00000000E+00    2
-7.45375000E+02 4.37967491E+00 2.50000000E+00 0.00000000E+00 0.00000000E+00    3
 0.00000000E+00 0.00000000E+00-7.45375000E+02 4.37967491E+00 0.00000000E+00    4
N2                      N   2    0    0    0    298.000  6000.00 1000.000      1
 2.95257637E+00 1.39690040E-03-4.92631603E-07 7.86010195E-11-4.60755204E-15    2
-9.23948688E+02 5.87188762E+00 3.53100528E+00-1.23660988E-04-5.02999433E-07    3
 2.43530612E-09-1.40881235E-12-1.04697628E+03 2.96747038E+00 0.00000000E+00    4
HE                      HE  1    0     0   0    200.000  6000.00  1000.00      1
 2.50000000E+00 0.00000000E+00 0.00000000E+00 0.00000000E+00 0.00000000E+00    2
-7.45375000E+02 9.28723974E-01 2.50000000E+00 0.00000000E+00 0.00000000E+00    3
 0.00000000E+00 0.00000000E+00-7.45375000E+02 9.28723974E-01 0.00000000E+00    4
C                       C  1                    298.00   6000.00  1000.00      1
 0.26055830E+01-0.19593434E-03 0.10673722E-06-0.16423940E-10 0.81870580E-15    2
 0.85411742E+05 0.41923868E+01 0.25542395E+01-0.32153772E-03 0.73379223E-06    3
-0.73223487E-09 0.26652144E-12 0.85442681E+05 0.45313085E+01                   4
H                       H   1    0    0    0    298.000  6000.00 1000.000      1
 0.25000000E+01 0.00000000E+00 0.00000000E+00 0.00000000E+00 0.00000000E+00    2
 0.25473660E+05-0.44668285E+00 0.25000000E+01 0.00000000E+00 0.00000000E+00    3
 0.00000000E+00 0.00000000E+00 0.25473660E+05-0.44668285E+00 0.26219035E+05    4
O                       O   1    0    0    0    298.000  6000.00 1000.000      1
 2.54363697E+00-2.73162486E-05-4.19029520E-09 4.95481845E-12-4.79553694E-16    2
 2.92260120E+04 4.92229457E+00 3.16826710E+00-3.27931884E-03 6.64306396E-06    3
-6.12806624E-09 2.11265971E-12 2.91222592E+04 2.05193346E+00 2.99687009E+04    4
O2                      O   2    0    0    0    200.000  6000.00  1000.00      1
 3.66096065E+00 6.56365811E-04-1.41149627E-07 2.05797935E-11-1.29913436E-15    2
-1.21597718E+03 3.41536279E+00 3.78245636E+00-2.99673416E-03 9.84730201E-06    3
-9.68129509E-09 3.24372837E-12-1.06394356E+03 3.65767573E+00 0.00000000E+00    4
OH                      H   1O   1    0    0    298.000  6000.00 1000.000      1
 2.83853033E+00 1.10741289E-03-2.94000209E-07 4.20698729E-11-2.42289890E-15    2
 3.69780808E+03 5.84494652E+00 3.99198424E+00-2.40106655E-03 4.61664033E-06    3
-3.87916306E-09 1.36319502E-12 3.36889836E+03-1.03998477E-01 4.48615380E+03    4
H2                      H   2    0    0    0    298.000  6000.00 1000.000      1
 2.93286575E+00 8.26608026E-04-1.46402364E-07 1.54100414E-11-6.88804800E-16    2
-8.13065581E+02-1.02432865E+00 2.34433112E+00 7.98052075E-03-1.94781510E-05    3
 2.01572094E-08-7.37611761E-12-9.17935173E+02 6.83010238E-01 0.00000000E+00    4
H2O                     H   2O   1    0    0    298.000  6000.00 1000.000      1
 0.26770389E+01 0.29731816E-02-0.77376889E-06 0.94433514E-10-0.42689991E-14    2
-0.29885894E+05 0.68825500E+01 0.41986352E+01-0.20364017E-02 0.65203416E-05    3
-0.54879269E-08 0.17719680E-11-0.30293726E+05-0.84900901E+00-0.29084817E+05    4
HO2                     H   1O   2    0    0    298.000  6000.00 1000.000      1
 4.17228741E+00 1.88117627E-03-3.46277286E-07 1.94657549E-11 1.76256905E-16    2
 3.10206839E+01 2.95767672E+00 4.30179807E+00-4.74912097E-03 2.11582905E-05    3
-2.42763914E-08 9.29225225E-12 2.64018485E+02 3.71666220E+00 1.47886045E+03    4
H2O2                    H   2O   2    0    0    298.000  6000.00 1000.000      1
 4.57977305E+00 4.05326003E-03-1.29844730E-06 1.98211400E-10-1.13968792E-14    2
-1.80071775E+04 6.64970694E-01 4.31515149E+00-8.47390622E-04 1.76404323E-05    3
-2.26762944E-08 9.08950158E-12-1.77067437E+04 3.27373319E+00-1.63425145E+04    4
CO                      C   1O   1    0    0    298.000  6000.00 1000.000      1
 0.30484859E+01 0.13517281E-02-0.48579405E-06 0.78853644E-10-0.46980746E-14    2
-0.14266117E+05 0.60170977E+01 0.35795335E+01-0.61035369E-03 0.10168143E-05    3
 0.90700586E-09-0.90442449E-12-0.14344086E+05 0.35084093E+01-0.13293628E+05    4
CO2                     C   1O   2    0    0    298.000  6000.00 1000.000      1
 0.46365111E+01 0.27414569E-02-0.99589759E-06 0.16038666E-09-0.91619857E-14    2
-0.49024904E+05-0.19348955E+01 0.23568130E+01 0.89841299E-02-0.71220632E-05    3
 0.24573008E-08-0.14288548E-12-0.48371971E+05 0.99009035E+01-0.47328105E+05    4
HCO                     C   1H   1O   1    0    298.000  6000.00 1000.000      1
 3.92001542E+00 2.52279324E-03-6.71004164E-07 1.05615948E-10-7.43798261E-15    2
 3.65342928E+03 3.58077056E+00 4.23754610E+00-3.32075257E-03 1.40030264E-05    3
-1.34239995E-08 4.37416208E-12 3.87241185E+03 3.30834869E+00 5.08749163E+03    4
CH4                     C  1 H 4          0.G   200.000  6000.00  1000.00      1
 1.65326226E+00 1.00263099E-02-3.31661238E-06 5.36483138E-10-3.14696758E-14    2
-1.00095936E+04 9.90506283E+00 5.14911468E+00-1.36622009E-02 4.91453921E-05    3
-4.84246767E-08 1.66603441E-11-1.02465983E+04-4.63848842E+00-8.97226656E+03    4
CH                      C   1H   1    0    0    298.000  6000.00 1000.000      1
 0.25209369E+01 0.17653639E-02-0.46147660E-06 0.59289675E-10-0.33474501E-14    2
 0.70946769E+05 0.74051829E+01 0.34897583E+01 0.32432160E-03-0.16899751E-05    3
 0.31628420E-08-0.14061803E-11 0.70612646E+05 0.20842841E+01 0.71658188E+05    4
CH2O                    C   1H   2O   1    0    298.000  6000.00 1000.000      1
 3.16952665E+00 6.19320560E-03-2.25056366E-06 3.65975660E-10-2.20149458E-14    2
-1.45486831E+04 6.04207898E+00 4.79372312E+00-9.90833322E-03 3.73219990E-05    3
-3.79285237E-08 1.31772641E-11-1.43791953E+04 6.02798058E-01-1.31293365E+04    4
OH*                     H   1O   1    0    0   200.00   6000.00  1000.00       1
 2.75582920E+00 1.39848756E-03-4.19428493E-07 6.33453282E-11-3.56042218E-15    2
 5.09751756E+04 5.62581429E+00 3.46084428E+00 5.01872172E-04-2.00254474E-06    3
 3.18901984E-09-1.35451838E-12 5.07349466E+04 1.73976415E+00 5.17770741E+04    4
NO                      O 1  N 1               0298.00   5000.00  1000.00      1
 3.26060560E+00 1.19110430E-03-4.29170480E-07 6.94576690E-11-4.03360990E-15    2
 9.92097460E+03 6.36930270E+00 4.21847630E+00-4.63897600E-03 1.10410220E-05    3
-9.33613540E-09 2.80357700E-12 9.84462300E+03 2.28084640E+00                   4
NO2                     O 2  N 1               0298.00   5000.00  1000.00      1
 4.88475420E+00 2.17239560E-03-8.28069060E-07 1.57475100E-10-1.05108950E-14    2
 2.31649830E+03-1.17416950E-01 3.94403120E+00-1.58542900E-03 1.66578120E-05    3
-2.04754260E-08 7.83505640E-12 2.89661790E+03 6.31199170E+00                   4
N                       N 1                    0298.00   5000.00  1000.00      1
 2.41594290E+00 1.74890650E-04-1.19023690E-07 3.02262450E-11-2.03609820E-15    2
 5.61337730E+04 4.64960960E+00 2.50000000E+00 0.00000000E+00 0.00000000E+00    3
 0.00000000E+00 0.00000000E+00 5.61046370E+04 4.19390870E+00                   4
CH3                     C 1  H 3               0298.00   5000.00  1000.00      1
 2.84405160E+00 6.13797410E-03-2.23034520E-06 3.78516080E-10-2.45215900E-14    2
 1.64378090E+04 5.45269730E+00 2.43044280E+00 1.11240990E-02-1.68022030E-05    3
 1.62182870E-08-5.86495260E-12 1.64237810E+04 6.78979400E+00                   4
C2H3                    C 2  H 3               0298.00   5000.00  1000.00      1
 5.93346790E+00 4.01774560E-03-3.96673950E-07-1.44126660E-10 2.37864350E-14    2
 3.18543460E+04-8.53031250E+00 2.45927640E+00 7.37147640E-03 2.10987290E-06    3
-1.32164210E-09-1.18478380E-12 3.33522500E+04 1.15562020E+01                   4
C3H5                    C 3  H 5               0300.00   3000.00  1000.00      1
 7.00945680E+00 1.31066290E-02-4.65334420E-06 7.45143230E-10-4.43500510E-14    2
 1.64129090E+04-1.39461140E+01 1.46980360E+00 1.90343650E-02 1.44804250E-05    3
-3.54686520E-08 1.66475940E-11 1.83258310E+04 1.67241140E+01                   4
C2H4                    C 2  H 4               0298.00   5000.00  1000.00      1
 3.52841880E+00 1.14851850E-02-4.41838530E-06 7.84460050E-10-5.26684850E-14    2
 4.42828860E+03 2.23038910E+00-8.61487990E-01 2.79616280E-02-3.38867720E-05    3
 2.78515220E-08-9.73787890E-12 5.57304590E+03 2.42114870E+01                   4
CH2CHO                  C 2  H 3  O 1          0298.00   5000.00  1000.00      1
 5.97566990E+00 8.13059140E-03-2.74362450E-06 4.07030410E-10-2.17601710E-14    2
 4.90321780E+02-5.04525090E+00 3.40906240E+00 1.07385740E-02 1.89149250E-06    3
-7.15858310E-09 2.86738510E-12 1.52147660E+03 9.55829050E+00                   4
C3H6                    C   3H   6    0    0      300.00   5000.00 1000.00     1
 0.67322569E+01 0.14908336E-01-0.49498994E-05 0.72120221E-09-0.37662043E-13    2
-0.92357031E+03-0.13313348E+02 0.14933071E+01 0.20925175E-01 0.44867938E-05    3
-0.16689121E-07 0.71581465E-11 0.10748264E+04 0.16145340E+02                   4
END
